/*--------------------------------*- C++ -*----------------------------------*\
| =========                 |                                                 |
| \\      /  F ield         | OpenFOAM: The Open Source CFD Toolbox           |
|  \\    /   O peration     | Version:  2412                                  |
|   \\  /    A nd           | Website:  www.openfoam.com                      |
|    \\/     M anipulation  |                                                 |
\*---------------------------------------------------------------------------*/
FoamFile
{
    version     2.0;
    format      ascii;
    arch        "LSB;label=32;scalar=64";
    class       volScalarField;
    location    "0/rightDielectric";
    object      surfCharge;
}
// * * * * * * * * * * * * * * * * * * * * * * * * * * * * * * * * * * * * * //
#include        "../../configuration/config"

dimensions      [ 0 -2 1 0 0 1 0 ];

internalField   uniform 0;

boundaryField
{
    back
    {
        type            empty;
    }
    down
    {
        type            fixedValue;
        value           uniform 0;
    }
    up
    {
        type            fixedValue;
        value           uniform 0;
    }
    front
    {
        type            empty;
    }
    right
    {
        type            fixedValue;
        value           uniform 0;
    }
    rightDielectric_to_leftGas
    {
        type            fixedValue;
        value           uniform 0;
    }
}


// ************************************************************************* //
